Version 4
SHEET 1 9180 95864
WIRE -96 -144 -192 -144
WIRE 32 -144 -96 -144
WIRE 688 -144 32 -144
WIRE 832 -144 688 -144
WIRE -192 -128 -192 -144
WIRE -96 -128 -96 -144
WIRE 80 -96 64 -96
WIRE 160 -96 144 -96
WIRE 224 -96 160 -96
WIRE 368 -96 288 -96
WIRE 464 -96 368 -96
WIRE 512 -96 464 -96
WIRE 368 -80 368 -96
WIRE 512 -80 512 -96
WIRE 832 -80 832 -144
WIRE -192 -32 -192 -48
WIRE 688 -32 688 -144
WIRE 688 -32 640 -32
WIRE 720 -32 688 -32
WIRE 720 -16 720 -32
WIRE 368 0 368 -16
WIRE 32 16 32 -144
WIRE 160 16 160 -96
WIRE 512 16 512 0
WIRE 704 48 640 48
WIRE 720 48 704 48
WIRE 1120 64 880 64
WIRE 1376 64 1184 64
WIRE 1472 64 1376 64
WIRE 832 80 832 0
WIRE 880 80 880 64
WIRE 1376 80 1376 64
WIRE 1472 80 1472 64
WIRE -192 96 -208 96
WIRE -96 96 -96 -48
WIRE -96 96 -112 96
WIRE -64 96 -96 96
WIRE 368 96 368 80
WIRE 368 96 256 96
WIRE 464 96 464 -96
WIRE 704 96 704 48
WIRE 880 176 880 160
WIRE 1376 176 1376 144
WIRE 1376 176 880 176
WIRE 1472 176 1472 160
WIRE 1472 176 1376 176
WIRE -64 192 -192 192
WIRE 368 192 256 192
WIRE 464 192 464 176
WIRE 464 192 368 192
WIRE 704 192 704 160
WIRE 704 192 688 192
WIRE 832 192 832 160
WIRE 832 192 704 192
WIRE -192 208 -192 192
WIRE 464 208 464 192
WIRE 1376 208 1376 176
WIRE -192 288 -192 272
WIRE -64 288 -80 288
WIRE 272 288 256 288
WIRE 368 288 368 192
WIRE 368 288 352 288
WIRE 464 304 464 288
WIRE 832 336 832 192
WIRE 832 336 688 336
WIRE 832 352 832 336
WIRE 400 384 256 384
WIRE 976 384 480 384
WIRE 976 416 976 384
WIRE 976 416 944 416
WIRE 688 432 688 336
WIRE 736 432 688 432
WIRE 1008 448 944 448
WIRE -224 480 -256 480
WIRE -128 480 -144 480
WIRE -64 480 -128 480
WIRE 576 480 256 480
WIRE -256 496 -256 480
WIRE -128 496 -128 480
WIRE 576 512 576 480
WIRE 1008 512 1008 448
WIRE 1008 512 576 512
WIRE 576 544 576 512
WIRE -256 576 -256 560
WIRE -128 576 -128 560
WIRE 32 576 32 560
WIRE 160 576 160 560
WIRE 32 672 32 656
FLAG -192 -32 0
FLAG -192 -144 IN
FLAG 1472 64 OUT
FLAG 160 576 0
FLAG 32 672 0
FLAG 464 304 0
FLAG 512 16 0
FLAG -80 288 0
FLAG -256 576 0
FLAG 64 -96 0
FLAG -208 96 0
FLAG 576 624 0
FLAG 1376 208 0
FLAG -128 576 0
FLAG -192 288 0
SYMBOL voltage -192 -144 R0
WINDOW 123 0 0 Left 2
WINDOW 39 0 0 Left 2
SYMATTR InstName V1
SYMATTR Value 400
SYMBOL ind2 816 64 R0
WINDOW 0 -3 37 Right 2
WINDOW 3 -4 74 Right 2
SYMATTR InstName L1
SYMATTR Value {L1}
SYMATTR SpiceLine Rser={L1_R}
SYMATTR Type ind
SYMBOL ind2 896 176 R180
WINDOW 0 -2 77 Right 2
WINDOW 3 -1 41 Right 2
SYMATTR InstName L2
SYMATTR Value {L2}
SYMATTR SpiceLine Rser={L2_R} Cpar=0.5p
SYMATTR Type ind
SYMBOL cap 1360 80 R0
SYMATTR SpiceLine Rser=8m
SYMATTR InstName C2
SYMATTR Value 680µ
SYMBOL diode 1120 80 R270
WINDOW 0 32 32 VTop 2
WINDOW 3 0 32 VBottom 2
SYMATTR InstName D1
SYMATTR Value mbr40250
SYMBOL res 16 560 R0
SYMATTR InstName R2
SYMATTR Value 56.2K
SYMBOL cap 352 -80 R0
SYMATTR InstName C3
SYMATTR Value 47p
SYMBOL res 352 -16 R0
SYMATTR InstName R3
SYMATTR Value 10K
SYMBOL schottky 288 -112 R90
WINDOW 0 0 32 VBottom 2
WINDOW 3 32 32 VTop 2
SYMATTR InstName D2
SYMATTR Value RB558VA150
SYMATTR Description Diode
SYMATTR Type diode
SYMBOL res 368 272 R90
WINDOW 0 0 56 VBottom 2
WINDOW 3 32 56 VTop 2
SYMATTR InstName R5
SYMATTR Value 121K
SYMBOL res 448 80 R0
SYMATTR InstName R6
SYMATTR Value 46.02K
SYMBOL res 448 192 R0
SYMATTR InstName R7
SYMATTR Value 4.99K
SYMBOL ind2 496 16 M180
WINDOW 0 40 88 Left 2
WINDOW 3 42 38 Left 2
SYMATTR InstName L3
SYMATTR Value {L2}
SYMATTR SpiceLine Rser=0.12
SYMATTR Type ind
SYMBOL res -128 464 R90
WINDOW 0 0 56 VBottom 2
WINDOW 3 32 56 VTop 2
SYMATTR InstName R8
SYMATTR Value 10k
SYMBOL cap -272 496 R0
SYMATTR InstName C6
SYMATTR Value 100n
SYMBOL res 1456 64 R0
SYMATTR InstName Rload
SYMATTR Value 1.44
SYMBOL PowerProducts\\LT8316 96 288 R0
SYMATTR InstName U1
SYMBOL res 560 528 R0
SYMATTR InstName R4
SYMATTR Value 32m
SYMBOL cap 144 -112 R90
WINDOW 0 0 32 VBottom 2
WINDOW 3 32 32 VTop 2
SYMATTR InstName C4
SYMATTR Value 4.7µ
SYMBOL res -112 -144 R0
SYMATTR InstName R1
SYMATTR Value 1.5Meg
SYMBOL res -96 80 R90
WINDOW 0 0 56 VBottom 2
WINDOW 3 32 56 VTop 2
SYMATTR InstName R10
SYMATTR Value 20K
SYMBOL ind 816 -96 R0
SYMATTR InstName L4
SYMATTR Value 2.965µ
SYMBOL diode 720 160 R180
WINDOW 0 24 64 Left 2
WINDOW 3 24 0 Left 2
SYMATTR InstName D3
SYMBOL res 624 -48 R0
SYMATTR InstName R9
SYMATTR Value 10k
SYMBOL cap 704 -16 R0
SYMATTR InstName C7
SYMATTR Value 1µ
SYMBOL res 496 368 R90
WINDOW 0 0 56 VBottom 2
WINDOW 3 32 56 VTop 2
SYMATTR InstName R11
SYMATTR Value 10m
SYMBOL AutoGenerated\\IPAN70R450P7S_L0 832 432 R0
SYMATTR InstName U2
SYMBOL cap -144 496 R0
SYMATTR InstName C8
SYMATTR Value 4.7p
SYMBOL cap -208 208 R0
SYMATTR InstName C1
SYMATTR Value 4.7µ
TEXT 888 56 Bottom 2 !K1 L1 L2 L3 1
TEXT 1368 888 Left 2 !.tran 0 150m 140m startup
TEXT 896 336 Left 2 !.param L1=296.5u  L1_R=0.2060 L2=2.234u L2_R=0.004m
TEXT 1256 648 Left 2 !.model mbr40250 d\n+IS=3e-06 RS=0.00398945 N=1.75864 EG=0.999094\n+XTI=5 BV=250 IBV=0.00025 CJO=9.00035e-10\n+VJ=0.557029 M=0.428275 FC=0.5 TT=3.47959e-08\n+KF=0 AF=1
TEXT 1264 808 Left 2 !.inc Simulation_model_CoolMOS_P7_MOSFET_700V_Spice.lib
